results/03_weak_bus_ranking.csv
Rank,Bus,V_at_peak_pu,dV_dLoadFactor,VoltageDrop_pu
1,30,0.895808243152976,-0.530590470516099,0.214371037727979
2,26,0.900340399712385,-0.525033379584662,0.211616690970438
3,29,0.911171961256804,-0.506846198670204,0.204647023898034
4,24,0.920077943808884,-0.501902498456974,0.201530634156405
5,25,0.923910181243934,-0.490107448459906,0.197360803220293
6,19,0.931996828939678,-0.489552105393307,0.196068809362549
7,23,0.936696671707557,-0.485721831161655,0.194287834752843
8,18,0.938856809189275,-0.482994787088657,0.193135428917656
9,20,0.935523789890832,-0.482904449997698,0.193508303487824
10,21,0.933960819858696,-0.479965042047326,0.192710136072284
11,22,0.934718582428031,-0.479091006624947,0.192347845030875
12,27,0.93777565985428,-0.465480439066151,0.187704747719396
13,17,0.947533734309827,-0.463668109016591,0.185789112723406
14,15,0.957428955679165,-0.461914926435627,0.184114294678151
15,10,0.950272158764677,-0.456510403138301,0.183198498178616
16,14,0.966568644970145,-0.451285012398418,0.179556331929358
17,16,0.962812397422121,-0.450316120187969,0.179664009086006
18,12,0.98926014123972,-0.422227073361745,0.167523614241156
19,9,0.972989394215854,-0.421558849869258,0.16936437333852
20,7,0.939610987284024,-0.375391036418529,0.151358406739425
21,28,0.942172079784146,-0.375024229336595,0.151076663544365
22,6,0.949552504850407,-0.354542632996496,0.142771372060832
23,4,0.959388157543535,-0.309334309423596,0.124412519941287
24,3,0.977447446518444,-0.256044839125129,0.103004405440127
