results/06_line_contingencies.csv
Type,BranchRow,FromBus,ToBus,Converged,Vmin_pu,Ploss_MW,LowVBusCount,Outcome
Line,1,1,2,0,NaN,NaN,NaN,COLLAPSE
Line,2,1,3,0,NaN,NaN,NaN,COLLAPSE
Line,3,2,4,1,0.860629381374014,32.5811449087976,23,VIOLATION
Line,4,3,4,0,NaN,NaN,NaN,COLLAPSE
Line,5,2,5,0,NaN,NaN,NaN,COLLAPSE
Line,6,2,6,1,0.827812332703243,36.2129944594714,24,VIOLATION
Line,7,4,6,1,0.829339275414375,37.1253443087774,21,VIOLATION
Line,8,5,7,1,0.887105657478325,29.2456431725804,18,VIOLATION
Line,9,6,7,1,0.849113895116589,33.2933372832366,14,VIOLATION
Line,10,6,8,1,0.879695590655211,31.088687585299,18,VIOLATION
Line,13,9,11,0,NaN,NaN,NaN,ISLANDED
Line,14,9,10,1,0.840509381998991,31.476007672958,22,VIOLATION
Line,16,12,13,0,NaN,NaN,NaN,ISLANDED
Line,17,12,14,1,0.892815317244137,29.5144758896587,19,VIOLATION
Line,18,12,15,1,0.878429892058623,30.9522154094041,19,VIOLATION
Line,19,12,16,1,0.890912395861521,29.475964540813,18,VIOLATION
Line,20,14,15,1,0.895192347371605,28.9910889429669,17,VIOLATION
Line,21,16,17,1,0.893179945376282,29.1352324052023,17,VIOLATION
Line,22,15,18,1,0.894163169894298,29.3456995557391,17,VIOLATION
Line,23,18,19,1,0.895377306957839,29.0424283031355,16,VIOLATION
Line,24,19,20,1,0.893830120318266,29.4954704361548,17,VIOLATION
Line,25,10,20,1,0.883133486871745,29.9199818750172,17,VIOLATION
Line,26,10,17,1,0.895560319436606,29.1280085663091,17,VIOLATION
Line,27,10,21,1,0.885834146626699,29.8962243167788,17,VIOLATION
Line,28,10,22,1,0.893005244741838,29.171372970099,16,VIOLATION
Line,29,21,22,1,0.896664279107123,28.9797964956364,17,VIOLATION
Line,30,15,23,1,0.880921814833485,29.4401825795147,17,VIOLATION
Line,31,22,24,1,0.881387299510995,29.3183514544283,15,VIOLATION
Line,32,23,24,1,0.888240302048179,29.069554886731,16,VIOLATION
Line,33,24,25,1,0.897658318210393,28.9898581248168,17,VIOLATION
Line,34,25,26,0,NaN,NaN,NaN,ISLANDED
Line,35,25,27,1,0.85472208039708,29.4131317242645,17,VIOLATION
Line,37,27,29,1,0.82652433545626,29.9361674115231,17,VIOLATION
Line,38,27,30,1,0.808951261429003,30.2982166447826,17,VIOLATION
Line,39,29,30,1,0.8691750920659,29.2936169398775,17,VIOLATION
Line,40,8,28,1,0.888648769745498,29.260593817999,17,VIOLATION
Line,41,6,28,1,0.864017969424144,29.9129122448426,18,VIOLATION
