results/07_capacitor_screen.csv
Bus,Cap_MVAr,Converged,Vmin_pu,Vmax_load_pu,Ploss_MW,LowVBusCount,HighVBusCount,InBand,MaxLoading_pct,QlimArtifact
24,2.5,1,0.815931234383063,0.990130597673321,30.0270084864431,16,0,0,171.187201848688,0
24,5,1,0.822961262231009,0.994962110760537,29.7705639797293,14,0,0,170.836881887905,0
24,7.5,1,0.830043590074096,0.99985153463773,29.529546370107,12,0,0,170.507484293123,0
24,10,1,0.83718045179551,1.00480020832832,29.3046530195706,6,0,0,170.199896014492,0
24,12.5,1,0.844374073899855,1.00980949249743,29.0966168177114,4,0,0,169.915039676516,0
24,15,1,0.851626679071504,1.01488077040239,28.9062076843622,3,0,0,169.65387405466,0
24,17.5,1,0.858940489456126,1.02001544879479,28.734234167706,3,0,0,169.417394525594,0
24,20,1,0.866317729760238,1.02521495880719,28.581545138112,2,0,0,169.206633480523,0
24,22.5,1,0.873760630081924,1.03048075677739,28.4490315858714,2,0,0,169.022660700658,0
24,25,1,0.881271428728931,1.03581432518679,28.3376285167897,2,0,0,168.866583674356,0
24,27.5,1,0.888123697700834,1.04016180418397,28.263439445597,2,0,0,168.760260297704,0
24,30,1,0.893267894122173,1.04199810230316,28.2452836897432,2,0,0,168.723495171184,0
24,32.5,1,0.898452611903016,1.04385299941651,28.2454400306898,2,0,0,168.701080715286,0
24,35,1,0.903678542099698,1.04572673984554,28.264591392008,1,0,0,168.693484654154,0
24,37.5,1,0.908946383639025,1.04761957171517,28.3034449301638,1,0,0,168.701186601775,0
24,40,1,0.913910926496912,1.05174653342415,28.3700127999917,1,1,0,168.728266018371,0
24,42.5,1,0.91834390521553,1.05835268921528,28.4677998005664,1,2,0,168.774360582423,0
24,45,1,0.922809850227476,1.06502622614889,28.5846522497636,1,2,0,168.832542184317,0
24,47.5,1,0.927309169971894,1.07176799644277,28.7212065695831,1,2,0,168.903167164729,0
24,50,1,0.931842272059647,1.07857886048935,28.8781195943617,1,3,0,168.986600759378,0
26,2.5,1,0.819548151200981,0.98952622848011,29.9971597044828,16,0,0,171.17423616166,0
26,5,1,0.83041140161824,0.993811030749722,29.7465758605485,14,0,0,170.826004378012,0
26,7.5,1,0.841550146866838,0.998212867285565,29.5534671735017,12,0,0,170.517590867208,0
26,10,1,0.852973165419406,1.00273424278986,29.4256610091524,5,0,0,170.25416959625,0
26,12.5,1,0.86468873179659,1.00737729716343,29.3718995528157,2,0,0,170.041430468391,0
26,15,1,0.876704435766256,1.02436924079067,29.4019369406401,2,0,0,169.885614666764,0
26,17.5,1,0.889026963159491,1.04938136453009,29.5266438598034,2,0,0,169.793548497005,0
26,20,1,0.901661831555464,1.07528357084401,29.7581191213578,2,1,0,169.772674368854,0
26,22.5,1,0.914613073127969,1.10210393983713,30.1098072232939,1,1,0,169.83107720253,0
26,25,1,0.927882857474041,1.12986893978946,30.5966202037206,1,1,0,184.100388201781,0
26,27.5,1,0.941471032788342,1.15860272149834,31.2350616856864,1,2,0,215.076085210157,0
26,30,1,0.953639528327288,1.18630869810389,32.061669877712,0,3,0,248.017116619974,0
26,32.5,1,0.96521044965165,1.21389025825481,33.0735579796737,0,3,0,283.279537375673,0
26,35,1,0.975543655785325,1.2423144459759,34.2782037570255,0,3,0,321.430420700942,0
26,37.5,1,0.977465121055722,1.27158363968637,35.6960142058225,0,3,0,362.668023989748,0
26,40,1,0.979129131135396,1.30119555241649,37.3496198707974,0,3,0,406.875123320386,0
26,42.5,1,0.980432670465561,1.3309112791202,39.2559942840428,0,4,0,454.01764388729,0
26,45,1,0.981684022760658,1.36138988057171,41.4357210745024,0,6,0,504.696914051569,0
26,47.5,1,0.982869399899151,1.39260476987366,43.9142449058189,0,6,0,559.110503989452,0
26,50,1,0.983973017176027,1.42451827631083,46.7183514156255,0,6,0,617.449593107685,0
29,2.5,1,0.832032344831476,0.989092894103869,29.9579250353975,16,0,0,171.158434362901,0
29,5,1,0.855777101612767,0.992930614506379,29.6607165970065,14,0,0,170.79066774104,0
29,7.5,1,0.880237373919294,0.996874892008429,29.4113738492528,13,0,0,170.457733385742,0
29,10,1,0.90546606830894,1.00093171830787,29.2154323634119,8,0,0,170.163586006527,0
29,12.5,1,0.931517462069857,1.00510702314765,29.0792598110289,3,0,0,169.912734085656,0
29,15,1,0.950507192288617,1.00940665984303,29.0101491478619,0,0,1,169.710285682318,0
29,17.5,1,0.956858324488721,1.02909240212726,29.0164268572511,0,0,1,169.561999621743,0
29,20,1,0.96005395150149,1.05666722823029,29.1075774078819,0,1,0,169.474341511844,0
29,22.5,1,0.963333768272412,1.08533329422344,29.2943852405044,0,1,0,172.184413094603,0
29,25,1,0.966699441058326,1.11515282379174,29.589095677311,0,3,0,196.388729259142,0
29,27.5,1,0.970152076292039,1.14619024070028,30.0055960830071,0,3,0,224.251409448888,0
29,30,1,0.973692077863098,1.17851198280649,30.5596187611391,0,3,0,255.891600256876,0
29,32.5,1,0.976391679239668,1.21021392542406,31.2873383820137,0,4,0,290.570833143217,0
29,35,1,0.978768620235113,1.24238374414191,32.186121813449,0,4,0,328.731212542817,0
29,37.5,1,0.981185254351337,1.27584282385533,33.2666876679334,0,5,0,370.933209523684,0
29,40,1,0.983636826138178,1.31064742072935,34.5512082410469,0,5,0,417.469105343978,0
29,42.5,1,0.985541721237506,1.34563250539494,36.0658567741091,0,5,0,467.818369938273,0
29,45,1,0.98743555315895,1.38195199469572,37.8271549845629,0,5,0,522.968599666878,0
29,47.5,1,0.98932779665508,1.41969063651923,39.8638765758353,0,6,0,583.335659315022,0
29,50,1,0.991207638341878,1.45889075225787,42.2081086226566,0,6,0,649.347851314446,0
30,2.5,1,0.84056075426674,0.988898746302048,29.9362913777825,17,0,0,171.159047080676,0
30,5,1,0.87392856469402,0.99260018618266,29.640971525546,14,0,0,170.798937299211,0
30,7.5,1,0.909199834890424,0.996469211242583,29.426838734807,13,0,0,170.486077485446,0
30,10,1,0.928502787782296,1.00051438558954,29.3115708689536,9,0,0,170.231087121616,0
30,12.5,1,0.939037310263299,1.00474317260811,29.3165525297346,3,0,0,170.046698571244,0
30,15,1,0.950126714458718,1.02801459187516,29.4675972654279,0,0,1,169.948104019231,0
30,17.5,1,0.956672622523515,1.07251514563636,29.7957905348263,0,1,0,169.953336360074,0
30,20,1,0.959954377526198,1.11975366479766,30.3384553212533,0,2,0,170.083671917793,0
30,22.5,1,0.963323253382224,1.16990034299937,31.1402283000422,0,2,0,195.146560727599,0
30,25,1,0.966760838917402,1.22311218865638,32.2542095969949,0,3,0,233.453924801452,0
30,27.5,1,0.970239823536876,1.27952091330286,33.7431075603975,0,3,0,278.717821850141,0
30,30,1,0.973721238670973,1.33921594050398,35.6802337651656,0,3,0,331.699104168612,0
30,32.5,1,0.975857487772885,1.39878165749874,38.1383295203017,0,4,0,391.342532924126,0
30,35,1,0.977830661605321,1.46124537566349,41.1892790872242,0,5,0,459.758924202485,0
30,37.5,1,0.227459580003049,0.929415623206728,55.2846749197644,24,0,0,281.216852205048,0
30,40,0,NaN,NaN,NaN,NaN,NaN,0,NaN,0
30,42.5,0,NaN,NaN,NaN,NaN,NaN,0,NaN,0
30,45,0,NaN,NaN,NaN,NaN,NaN,0,NaN,0
30,47.5,0,NaN,NaN,NaN,NaN,NaN,0,NaN,0
30,50,0,NaN,NaN,NaN,NaN,NaN,0,NaN,0
