results/07_tap_screen.csv
BranchRow,FromBus,ToBus,Tap,Tap_original,Converged,Vmin_pu,Vmax_load_pu,Ploss_MW,LowVBusCount,InBand
11,6,9,0.9,0.978,1,0.822911713810708,1.02085782741969,30.056131980051,9,0
11,6,9,0.9125,0.978,1,0.820846572843912,1.01221604505169,30.0679047875965,9,0
11,6,9,0.925,0.978,1,0.818706226600138,1.00370207315468,30.0911378971054,11,0
11,6,9,0.9375,0.978,1,0.816497869357873,0.995316634731092,30.1249607221128,15,0
11,6,9,0.95,0.978,1,0.81422810239905,0.992225865675565,30.1685796747023,15,0
11,6,9,0.9625,0.978,1,0.811902983741013,0.989157825955132,30.2212702318804,16,0
11,6,9,0.975,0.978,1,0.809528072899933,0.986091151310947,30.2823699392092,17,0
11,6,9,0.9875,0.978,1,0.807108473658663,0.983028704279274,30.3512721278399,17,0
11,6,9,1,0.978,1,0.804648869820978,0.979973052254746,30.4274204803524,18,0
11,6,9,1.0125,0.978,1,0.802153560251939,0.976926494203941,30.510304102928,20,0
11,6,9,1.025,0.978,1,0.799626491088828,0.973891085319192,30.599453126896,21,0
11,6,9,1.0375,0.978,1,0.797071282852645,0.973100700587396,30.6944349008818,21,0
11,6,9,1.05,0.978,1,0.79449125751401,0.972570272654221,30.7948504885291,21,0
11,6,9,1.0625,0.978,1,0.791889462201864,0.972016325323125,30.9003315893614,21,0
11,6,9,1.075,0.978,1,0.789268691089302,0.971440768740795,31.0105377763264,21,0
11,6,9,1.0875,0.978,1,0.786631505429982,0.970845378707739,31.1251540219396,21,0
11,6,9,1.1,0.978,1,0.783980251910623,0.970231806323114,31.2438884797342,21,0
12,6,10,0.9,0.969,1,0.815646211862397,0.99485136476979,30.1744572191888,15,0
12,6,10,0.9125,0.969,1,0.814562484952588,0.993172744159943,30.1843636541883,15,0
12,6,10,0.925,0.969,1,0.813415121565523,0.991471731011778,30.2003470306193,15,0
12,6,10,0.9375,0.969,1,0.812209950282503,0.98975191628428,30.2219195456775,15,0
12,6,10,0.95,0.969,1,0.810952330457474,0.988016566354154,30.2486388246797,16,0
12,6,10,0.9625,0.969,1,0.809647192012918,0.986268651664565,30.2801029341089,17,0
12,6,10,0.975,0.969,1,0.808299071670536,0.984510872773627,30.3159460014702,17,0
12,6,10,0.9875,0.969,1,0.806912145859923,0.982745684011659,30.3558343669677,18,0
12,6,10,1,0.969,1,0.805490260456665,0.980975314876845,30.399463206061,18,0
12,6,10,1.0125,0.969,1,0.804036958689793,0.979201789961913,30.446553513523,18,0
12,6,10,1.025,0.969,1,0.802555504989576,0.977426946200471,30.4968495153451,19,0
12,6,10,1.0375,0.969,1,0.801048908196905,0.975652449388509,30.5501163128613,19,0
12,6,10,1.05,0.969,1,0.799519942051197,0.973879808844309,30.6061378291152,20,0
12,6,10,1.0625,0.969,1,0.797971164027932,0.973180090079852,30.6647149821663,20,0
12,6,10,1.075,0.969,1,0.796404932553129,0.972822180023304,30.7256640630256,20,0
12,6,10,1.0875,0.969,1,0.794823422746389,0.97244945538027,30.7888152930436,21,0
12,6,10,1.1,0.969,1,0.793228640828805,0.972063164156501,30.8540115388677,21,0
15,4,12,0.9,0.932,1,0.816852603923602,1.00859453583117,30.3780718985548,14,0
15,4,12,0.9125,0.932,1,0.813785300162617,0.999394295375405,30.3331230153606,15,0
15,4,12,0.925,0.932,1,0.810692725533805,0.990351551432819,30.3060435180283,17,0
15,4,12,0.9375,0.932,1,0.807578638075949,0.981464318750918,30.2955892018949,18,0
15,4,12,0.95,0.932,1,0.804446435200728,0.975399129871523,30.3006096166835,19,0
15,4,12,0.9625,0.932,1,0.80129918509686,0.97544749494233,30.3200403215859,20,0
15,4,12,0.975,0.932,1,0.79813965577334,0.975446116934987,30.3528958264727,20,0
15,4,12,0.9875,0.932,1,0.794970341153472,0.975398294516932,30.398263188962,21,0
15,4,12,1,0.932,1,0.791793484787255,0.975307101179356,30.4552961886274,21,0
15,4,12,1.0125,0.932,1,0.788611101372054,0.975175401397184,30.5232100231823,22,0
15,4,12,1.025,0.932,1,0.785424996292149,0.975005865551883,30.6012764754886,22,0
15,4,12,1.0375,0.932,1,0.782236783366075,0.974800983714996,30.6888195056801,22,0
15,4,12,1.05,0.932,1,0.779047900971348,0.9745630783826,30.7852112275105,22,0
15,4,12,1.0625,0.932,1,0.775859626698962,0.974294316243629,30.8898682323147,22,0
15,4,12,1.075,0.932,1,0.772673090674596,0.973996719058357,31.0022482277828,22,0
15,4,12,1.0875,0.932,1,0.769489287669683,0.973672173717177,31.1218469621071,22,0
15,4,12,1.1,0.932,1,0.76630908811322,0.973322441544149,31.2481954070897,22,0
36,28,27,0.9,0.968,1,0.872201243390858,0.992109521815229,29.9823171303485,13,0
36,28,27,0.9125,0.968,1,0.860281899416339,0.990909527681293,30.00736661295,15,0
36,28,27,0.925,0.968,1,0.84850107183841,0.98968886472131,30.0482541561287,15,0
36,28,27,0.9375,0.968,1,0.836853041604913,0.988449371516385,30.1040930718585,16,0
36,28,27,0.95,0.968,1,0.825331808038004,0.987192679076246,30.1740731320057,17,0
36,28,27,0.9625,0.968,1,0.813931085722544,0.985920222969906,30.2574565289713,17,0
36,28,27,0.975,0.968,1,0.802644294599152,0.984633253647922,30.353574383202,17,0
36,28,27,0.9875,0.968,1,0.791464542808257,0.983332844977027,30.4618237974945,17,0
36,28,27,1,0.968,1,0.780384601597692,0.982019900972488,30.5816654682703,18,0
36,28,27,1.0125,0.968,1,0.769396871068649,0.980695160553582,30.7126218875271,18,0
36,28,27,1.025,0.968,1,0.758493336855533,0.97935920089779,30.8542761090301,18,0
36,28,27,1.0375,0.968,1,0.747665512551767,0.97801243758661,31.0062712884676,18,0
36,28,27,1.05,0.968,1,0.736904369809847,0.976655123400121,31.1683108838683,19,0
36,28,27,1.0625,0.968,1,0.726200249820371,0.975287343884343,31.3401597708658,19,0
36,28,27,1.075,0.968,1,0.715542753089727,0.973909009790311,31.521646376373,20,0
36,28,27,1.0875,0.968,1,0.704920601569091,0.972519845610261,31.7126660566327,20,0
36,28,27,1.1,0.968,1,0.694321465302557,0.97159085832429,31.9131860199553,20,0
